
**** 12/17/23 23:11:54 *** PSpice 23.1.0 (15 November 2023) *** ID# 0 ********

 ** Profile: "SCHEMATIC1-opa_test"  [ C:\Users\sch\Desktop\NewFinal\Simulation\OPA_test\opa_design-pspicefiles\schematic1\opa_test.si


 ****     CIRCUIT DESCRIPTION


******************************************************************************




** Creating circuit file "opa_test.cir" 
** WARNING: THIS AUTOMATICALLY GENERATED FILE MAY BE OVERWRITTEN BY SUBSEQUENT SIMULATIONS

*Libraries: 
* Profile Libraries :
* Local Libraries :
* From [PSPICE NETLIST] section of C:\Users\sch\AppData\Roaming\SPB_Data\cdssetup\OrCAD_PSpice\23.1.0\PSpice.ini file:
.lib "nom.lib" 

*Analysis directives: 
.DC LIN V_V2 0 72 0.5 
.OPTIONS ADVCONV
.PROBE64 V(alias(*)) I(alias(*)) W(alias(*)) D(alias(*)) NOISE(alias(*)) 
.INC "..\SCHEMATIC1.net" 



**** INCLUDING SCHEMATIC1.net ****
* source OPA_DESIGN
R_R1         N00270 0  15k TC=0,0 
V_V1         3V3 0 3.3VDC
R_R2         N00270 3V3  15k TC=0,0 
R_R3         N00951 N01083  75k TC=0,0 
R_R4         N00951 0  3.3k TC=0,0 
R_R5         N00955 N01079  75k TC=0,0 
R_R6         N01022 N00955  3.3k TC=0,0 
V_V2         N01083 N01079 72VDC
E_U3         1V65 0 VALUE {LIMIT(V(N00270,1V65)*1E6,0V,5V)}
E_U4         N01022 0 VALUE {LIMIT(V(N00951,N00955)*1E6,0V,5V)}

**** RESUMING opa_test.cir ****
.END


          JOB CONCLUDED

**** 12/17/23 23:11:54 *** PSpice 23.1.0 (15 November 2023) *** ID# 0 ********

 ** Profile: "SCHEMATIC1-opa_test"  [ C:\Users\sch\Desktop\NewFinal\Simulation\OPA_test\opa_design-pspicefiles\schematic1\opa_test.si


 ****     JOB STATISTICS SUMMARY


******************************************************************************



  Total job time (using Solver 1)   =         .02
